FoamFile
{
    version     2.0;
    format      ascii;
    class       dictionary;
    location    "system";
    object      preciceDict;
}

preciceConfig "../precice-config.xml";

participant Fluid;

modules (FSI);

interfaces
{
  Interface1
  {
    mesh              Fluid-Mesh-Faces;
    patches           (right);
    locations         faceCenters;
    
    readData
    (
    );
    
    writeData
    (
      Pressure
    );
  };

  Interface2
  {
    mesh              Fluid-Mesh-Nodes;
    patches           (right);
    locations         faceNodes;
    
    readData
    (
      Displacement
    );
    
    writeData
    (
    );
  };
};



FSI
{
  rho rho [1 -3 0 0 0 0 0] 1e-3;
}
