/*--------------------------------*- C++ -*----------------------------------*\
| =========                 |                                                 |
| \\      /  F ield         | OpenFOAM: The Open Source CFD Toolbox           |
|  \\    /   O peration     | Version:  v2012                                 |
|   \\  /    A nd           | Website:  www.openfoam.com                      |
|    \\/     M anipulation  |                                                 |
\*---------------------------------------------------------------------------*/
FoamFile
{
    version     2.0;
    format      ascii;
    class       dictionary;
    location    "system";
    object      sample;
}
// * * * * * * * * * * * * * * * * * * * * * * * * * * * * * * * * * * * * * //

type sets;
libs            (sampling);

interpolationScheme cellPoint;

setFormat       raw;

sets
(
    data
    {
        type    uniform;
        axis    x;
        start   (0 0 0);
        end     (1.3 0 0);
        nPoints 1000;
    }
);

fields          (U mag(U) p);

// ************************************************************************* //

