FoamFile
{
    version     2.0;
    format      ascii;
    class       pointVectorField;
    object      pointDisplacement;
}
// * * * * * * * * * * * * * * * * * * * * * * * * * * * * * * * * * * * * * //

dimensions      [0 1 0 0 0 0 0];

internalField   uniform (0 0 0);

boundaryField
{

    left
    {
        type            fixedValue;
        value           uniform (0 0 0);
    }

    right
    {
        //type oscillatingDisplacement;
         //omega                 15; 
       //  amplitude          (0.5 0 0); // Max piston stroke
       //  value       uniform (0 0 0);

        type            fixedValue;
        value           $internalField;
    }
    top
    {
        type            slip;
    }

    bottom
    {
        type            slip;
    }

    frontAndBack
    {
        type            empty;
    }
    inlet
    {
        type            fixedValue;
        value           uniform (0 0 0);
    }
    outlet
    {
        type            fixedValue;
        value           uniform (0 0 0);
    }
}

// ************************************************************************* //
