FoamFile
{
    version     2.0;
    format      ascii;
    class       volVectorField;
    location    "0";
    object      U;
}
// * * * * * * * * * * * * * * * * * * * * * * * * * * * * * * * * * * * * * //

dimensions      [0 1 -1 0 0 0 0];

internalField   uniform (0 0 0);

boundaryField
{
    
    flap
    	{type        flowRateInletVelocity;
        volumetricFlowRate    6;        // Volumetric outflow from flap
        value       uniform (0 0 0); // placeholder
    }
    shunt
    {
    	type 		 noSlip;
    }
    
    shuntHoles
    {
        type            pressureInletOutletVelocity;
        tangentialVelocity  uniform (0 0 0);
        value              uniform (0 0 0);
    }
    walls
    {
        type            noSlip;
    }
   
}


// ************************************************************************* //
