/*--------------------------------*- C++ -*----------------------------------*\
| =========                 |                                                 |
| \\      /  F ield         | OpenFOAM: The Open Source CFD Toolbox           |
|  \\    /   O peration     | Version:  v2206                                 |
|   \\  /    A nd           | Website:  www.openfoam.com                      |
|    \\/     M anipulation  |                                                 |
\*---------------------------------------------------------------------------*/
FoamFile
{
    version     2.0;
    format      ascii;
    class       dictionary;
    object      controlDict;
}
// * * * * * * * * * * * * * * * * * * * * * * * * * * * * * * * * * * * * * //

application     simpleFoam;

libs ( "libOpenFOAM.so" "libmovingWallWithFlux.so") ;

startFrom       startTime;

startTime       0;

stopAt          endTime;

endTime         2500;

deltaT          1;

writeControl    timeStep;

writeInterval   100;

purgeWrite      0;

writeFormat     ascii;

writePrecision  6;

writeCompression off;

timeFormat      general;

timePrecision   6;

runTimeModifiable true;

functions
{
    
    #includeFunc  writeCellCentres(name=flap)
    #includeFunc wallShearStress(name=flap)
    stresses
    {
        type stressTensor;
        writeControl   outputTime;
        libs    ("libstressTensor.so");
    }
    pressure
    {
        type            pressure;
        libs ("libfieldFunctionObjects.so");
        writeControl    outputTime;
        rho             rhoInf;
        rhoInf     1; 
        pRef    0;
        //calcTotal   no;
        //calcCoeff   no;
  }

}


// ************************************************************************* //
